 CRYSTAL
 PRIMVEC
    7.347096396    0.000000000    0.000000000
   -2.449032132    4.241848082    0.000000000
    0.000000000    0.000000000    7.347096396
 PRIMCOORD
          11           1
C         0.047344713    0.188644381   -0.000059167   -0.000770170   -0.000864253    0.000002232
C        -1.285950971    2.379950499    0.000037566    0.000523931   -0.000422320   -0.000001157
C         2.485367756    0.204272315   -0.000006849    0.000278044    0.000187802   -0.000003907
C         1.190843505    2.271054005   -0.000117981    0.000837742    0.000958969    0.000000280
C         4.892856214    0.180861795   -0.000078991   -0.000100316   -0.000008625    0.000002084
C         3.665990893    2.343200215   -0.000070614   -0.000329357    0.000007234    0.000000651
C        -1.185312884    3.758897962    0.000019237   -0.000028167   -0.000017020   -0.000002486
C         2.418652165    1.601183100   -0.000046236   -0.000000326    0.000121254   -0.000002347
C         1.207535803    3.683958383   -0.000066199    0.000425596    0.000284677    0.000000402
C         4.902142833    1.611566446   -0.000049266   -0.000312771   -0.000020942    0.000001037
C         3.700302197    3.774008657   -0.000093139   -0.000524205   -0.000226775    0.000003212
