 CRYSTAL
 PRIMVEC
    7.347096396    0.000000000    0.000000000
   -2.449032132    4.241848082    0.000000000
    0.000000000    0.000000000    7.347096396
 PRIMCOORD
          11           1
C        -0.049268601    1.493859496   -0.000244941    0.000890204    0.000906464    0.000009610
C        -1.264301287    2.168263199    0.000164324    0.000095256   -0.000104959   -0.000007778
C         2.446082876    0.073416737   -0.000181453    0.000203675    0.000136997    0.000003466
C         1.196081316    2.151479579   -0.000423563    0.000501685    0.000266109    0.000009901
C         4.927151246    0.084561169   -0.000227853   -0.000104721   -0.000138304   -0.000006008
C         3.689503158    2.244263658   -0.000311965   -0.000362073   -0.000416256   -0.000000218
C        -1.161232046    3.546729704    0.000329294   -0.000559476    0.000464382   -0.000012743
C         2.453583842    1.504209307   -0.000365786    0.000118025    0.000123670    0.000007449
C         1.232204406    3.582858095   -0.000321425    0.000323873   -0.000074508    0.000003676
C         4.860575408    1.481902202   -0.000023087   -0.000249431   -0.000198322   -0.000010039
C         3.706499726    3.657642707   -0.000611427   -0.000857016   -0.000965272    0.000002684
