 CRYSTAL
 PRIMVEC
    7.347096396    0.000000000    0.000000000
   -2.449032132    4.241848082    0.000000000
    0.000000000    0.000000000    7.347096396
 PRIMCOORD
          11           1
C        -0.000305001    0.843078687   -0.000019640   -0.000436934    0.000268877    0.000001310
C        -1.311787101    2.290138024    0.000196035    0.000538576   -0.000157017    0.000010406
C         2.518962451    0.105247398    0.000119619    0.000178999    0.000116547   -0.000040153
C         1.144473758    2.011568037   -0.000288733   -0.000388436   -0.000447040   -0.000007139
C         4.863510619    0.142708447   -0.000403783   -0.000001531    0.000138566    0.000033581
C         3.688569101    2.406922142   -0.000314089   -0.000079462   -0.000115065    0.000004848
C        -1.138259634    3.636135117    0.000395170    0.000082393    0.000088925   -0.000024670
C         2.483243508    1.542302563   -0.000075425   -0.000140463   -0.000257925   -0.000031435
C         1.209025798    3.520028746   -0.000249001    0.000016845   -0.000161827   -0.000004799
C         4.827019358    1.579606373   -0.000294323    0.000288217    0.000248608    0.000038586
C         3.753873276    3.915656273   -0.000440588   -0.000058204    0.000277353    0.000019465
