 CRYSTAL
 PRIMVEC
    6.350126531    0.000000000    0.000000000
    0.000000000    6.350126531    0.000000000
    0.000000000    0.000000000   19.050379593
 PRIMCOORD
           6           1
C         0.000040725   -0.020362525    4.174213574   -0.000090262   -0.000123515   -0.000387847
Cl        0.000876534    0.104344196    7.447381925    0.000002566   -0.000110719    0.000982378
H         0.898474815    0.504130557    4.510783442    0.000111337    0.000079376   -0.000109808
H        -0.899390964    0.502996452    4.510133534   -0.000027131    0.000035373   -0.000135554
H         0.000547420   -1.052050443    4.537273569    0.000004196    0.000060581   -0.000172694
Cl        0.000672271   -0.051548883    2.387642457   -0.000000705    0.000058903   -0.000176476
