 CRYSTAL
 PRIMVEC
    6.350126531    0.000000000    0.000000000
    0.000000000    6.350126531    0.000000000
    0.000000000    0.000000000   19.050379593
 PRIMCOORD
           6           1
C        -0.000036147   -0.001479785    5.023637273    0.000003100   -0.000032923    0.000300745
Cl        0.000005527    0.091342179    6.806007675    0.000000626    0.000349610    0.000070142
H         0.897430693    0.500347501    4.650365068   -0.000036998   -0.000133936    0.000096255
H        -0.898145370    0.499261105    4.650464115    0.000034116   -0.000131376    0.000095588
H         0.000587259   -1.054522286    4.728227177    0.000000023   -0.000061387    0.000437243
Cl        0.001371859   -0.047359669    1.708652404   -0.000000866    0.000010011   -0.000999972
