 CRYSTAL
 PRIMVEC
    6.350126531    0.000000000    0.000000000
    0.000000000    6.350126531    0.000000000
    0.000000000    0.000000000   19.050379593
 PRIMCOORD
           6           1
C        -0.000042327   -0.011623910    4.594560810    0.000051528    0.000308017    0.000025317
Cl        0.000487548    0.080655295    6.819371340   -0.000014595   -0.000526238    0.000152469
H         0.939457498    0.528777263    4.580718293    0.000111042    0.000422159   -0.000186607
H        -0.940233657    0.527526951    4.580613182   -0.000136946    0.000446739   -0.000193235
H         0.000599779   -1.095491389    4.625918963    0.000008257    0.000044774   -0.000163763
Cl        0.000948472   -0.042295010    2.366208518   -0.000019286   -0.000695451    0.000365819
