 CRYSTAL
 PRIMVEC
   10.760997952    0.000000000    0.000000000
    0.000000000   10.760997952    0.000000000
    0.000000000    0.000000000   10.760997952
 PRIMCOORD
          63           1
Si        2.679156101    2.679422030   -0.023855644   -0.000357063   -0.000346558   -0.000491085
Si        3.045530575    3.046057972    5.390535598    0.000704543    0.000687407   -0.000602752
Si        2.673868931    8.117229925    0.013530229    0.000059140    0.000100659   -0.000459516
Si        2.683167526    8.049686570    5.369842919    0.000595764   -0.000253935    0.000194229
Si        8.116817347    2.674045093    0.013453547    0.000104295    0.000069314   -0.000446948
Si        8.049374543    2.683527972    5.369834890   -0.000258287    0.000598766    0.000198332
Si        8.061371735    8.061810169   -0.003196005    0.000286791    0.000284295    0.000584608
Si        7.989415078    7.989700998    5.348205942    0.000578429    0.000580681   -0.000163002
Si       -0.004556011   -0.004523778    0.010319185   -0.000298308   -0.000280671   -0.000033797
Si        0.072010940    0.072249111    5.340617196   -0.000634062   -0.000634320    0.000019033
Si       -0.059667122    5.393097065   -0.004123698   -0.000079730   -0.000631087    0.000691528
Si        0.009191610    5.366963621    5.375564948    0.000018170   -0.000225953    0.000220786
Si        5.392847046   -0.059413711   -0.003963973   -0.000633176   -0.000078806    0.000685452
Si        5.366812731    0.009517023    5.375427112   -0.000237391    0.000008119    0.000228626
Si        5.383549171    5.383642969   -0.025046885   -0.000148806   -0.000131781   -0.000028252
Si        2.707861914    0.057867744    2.720215506   -0.000604978   -0.000283905    0.000233811
Si        2.664607605    0.013233864    8.031547078    0.000025796    0.000356178   -0.000924459
Si        2.717249426    5.335051041    2.625814751    0.000050315    0.000644167    0.000076447
Si        2.631719333    5.421834726    8.143040172    0.000217841    0.000183118    0.000192545
Si        8.043983554    0.011906463    2.681790875   -0.000447427    0.000315772    0.000070458
Si        8.076687775   -0.020892151    8.045494042   -0.000097910    0.000413340    0.000133454
Si        8.007337203    5.358614086    2.719693603   -0.000143975    0.000221045    0.000394975
Si        8.032317072    5.381076304    8.017753510    0.000292288    0.000777764    0.000083942
Si        0.057327989    2.707936070    2.720251318   -0.000272845   -0.000586620    0.000232982
Si        0.012852443    2.664647464    8.031772577    0.000363404    0.000042714   -0.000930605
Si        0.011672967    8.044131469    2.681909141    0.000312575   -0.000436112    0.000068400
Si       -0.021189274    8.076935365    8.045707882    0.000415363   -0.000095836    0.000119010
Si        5.334554021    2.717974129    2.626360056    0.000658517    0.000021407    0.000051115
Si        5.421468057    2.631809451    8.143130186    0.000177765    0.000235417    0.000192161
Si        5.358247715    8.007372640    2.719969943    0.000213530   -0.000125129    0.000377753
Si        5.380707145    8.032446730    8.017738791    0.000782423    0.000319656    0.000100154
Si        4.043535940    1.335943512    1.304992349   -0.000800103    0.000276416    0.000587833
Si        4.060501365    1.386325332    6.734159287    0.000071833    0.000665068   -0.000341153
Si        4.022002345    6.717199605    1.316780628    0.000154025    0.000268270   -0.000162397
Si        3.984134630    6.661057252    6.720514355    0.000590905   -0.000259511    0.000075982
Si        9.451778065    1.346785436    1.387712303   -0.000332792   -0.000133543   -0.000177967
Si        9.419670736    1.333516370    6.691862278   -0.000335776    0.000112769   -0.000453345
Si        9.368975046    6.715387811    1.375988609   -0.000021088   -0.000321376    0.000398385
Si        9.397809504    6.716659370    6.693995398    0.000322713    0.000429420   -0.000151703
Si        1.335290022    4.043581741    1.304896772    0.000303987   -0.000789458    0.000599444
Si        1.385859462    4.060762438    6.734507865    0.000683518    0.000063380   -0.000358509
Si        1.346645691    9.452029065    1.388009574   -0.000132773   -0.000330568   -0.000197473
Si        1.333168131    9.419950375    6.692022753    0.000126975   -0.000345970   -0.000462224
Si        6.716936836    4.022158129    1.316947441    0.000271109    0.000159130   -0.000170395
Si        6.660836542    3.984302745    6.720819331   -0.000269000    0.000594836    0.000054184
Si        6.714933111    9.369148077    1.376256117   -0.000309241   -0.000021605    0.000388650
Si        6.716261681    9.398032885    6.694004302    0.000439865    0.000319002   -0.000149934
Si        5.009753477    5.009787749    5.378234974   -0.000974703   -0.000954894   -0.000953439
Si        4.030742176    4.031029956    9.407815610   -0.000095435   -0.000102269   -0.000105874
Si        4.029015221    9.409954945    4.032587246    0.000052567   -0.000022700   -0.000134441
Si        4.029157458    9.403353560    9.366066549   -0.000234943    0.000412826   -0.000597765
Si        9.409610568    4.029376396    4.032558372   -0.000018318    0.000036072   -0.000132145
Si        9.402971909    4.029423024    9.366076936    0.000411673   -0.000237835   -0.000599432
Si        9.409261740    9.409522277    4.032561716   -0.000085094   -0.000075654   -0.000727380
Si        9.411255109    9.411643313    9.415158846   -0.000083245   -0.000094505   -0.000326990
Si        1.548101211    1.548442829    4.094925258   -0.000632197   -0.000648288    0.000452667
Si        1.331831835    1.331925087    9.410387803   -0.000442329   -0.000443778   -0.000535219
Si        1.388877791    6.663406844    4.024659266    0.000068018   -0.000056011    0.000523673
Si        1.292188009    6.777332244    9.469952171   -0.000232840   -0.000570748    0.000418902
Si        6.663270104    1.389196510    4.024546510   -0.000063551    0.000063908    0.000529147
Si        6.777028972    1.292261619    9.469907323   -0.000564529   -0.000230045    0.000422908
Si        6.518983347    6.519038977    4.095589264    0.000239924    0.000246702    0.000648872
Si        6.724066412    6.724327031    9.395475765    0.000247855    0.000241852    0.000567754
