 CRYSTAL
 PRIMVEC
   10.760997952    0.000000000    0.000000000
    0.000000000   10.760997952    0.000000000
    0.000000000    0.000000000   10.760997952
 PRIMCOORD
          63           1
Si        2.696148481    2.696342482    0.028813386   -0.000092090   -0.000099912   -0.000293725
Si        2.895414682    2.895664531    5.323697607    0.000555737    0.000545619    0.000181670
Si        2.651471224    8.131069496   -0.045476047    0.000206246   -0.000025388   -0.000447665
Si        2.775265217    8.026863220    5.403796614   -0.000149838   -0.000292480   -0.000017902
Si        8.130815083    2.651705539   -0.045664900   -0.000014996    0.000201901   -0.000437020
Si        8.026843394    2.775245981    5.403730121   -0.000291085   -0.000149168   -0.000015612
Si        8.102858192    8.103068701    0.028271113   -0.000139684   -0.000154620   -0.000329759
Si        7.877698893    7.877947540    5.329073100    0.000372944    0.000367219   -0.000136206
Si        0.017022641    0.017067995    0.017180224   -0.000148212   -0.000150540    0.000047387
Si        0.011182284    0.011452174    5.401009721    0.000226832    0.000228511    0.000502476
Si        0.014375934    5.396377148    0.062169919   -0.000006672   -0.000087439    0.000578747
Si        0.017712470    5.398444356    5.399249275   -0.000167623   -0.000097666    0.000011956
Si        5.395875200    0.014851870    0.062195537   -0.000060499   -0.000006715    0.000580750
Si        5.398405759    0.017825497    5.399247105   -0.000097184   -0.000167311    0.000011934
Si        5.397439308    5.397569813    0.025198511   -0.000116915   -0.000123886   -0.000290996
Si        2.703696071    0.016843680    2.734827369   -0.000093515    0.000032622    0.000115352
Si        2.711276588    0.051934282    8.048154026   -0.000037175   -0.000007751   -0.000034490
Si        2.758355538    5.428459455    2.701930433    0.000032096    0.000070584   -0.000206120
Si        2.708340887    5.397725811    8.112515111   -0.000184838    0.000002211    0.000019231
Si        8.087113767    0.009467583    2.743020727   -0.000012480    0.000040976   -0.000240502
Si        8.079977039   -0.022782855    8.041687353   -0.000168536   -0.000211539    0.000226357
Si        8.030961526    5.362886423    2.697604620   -0.000257278   -0.000058930    0.000087958
Si        8.080580934    5.388806404    8.119048148    0.000348380    0.000239827   -0.000100552
Si        0.016454726    2.703735850    2.734649719    0.000041905   -0.000081310    0.000126484
Si        0.051826040    2.711658856    8.048519549    0.000002662   -0.000046237   -0.000055524
Si        0.009534952    8.087383661    2.743448923    0.000044584   -0.000028597   -0.000255026
Si       -0.023171215    8.080161415    8.041648265   -0.000195497   -0.000183438    0.000224984
Si        5.428692584    2.758506586    2.702091068    0.000059476    0.000040842   -0.000200334
Si        5.397268945    2.708493433    8.112384099    0.000023074   -0.000181158    0.000030719
Si        5.362517296    8.031085385    2.697631824   -0.000039657   -0.000253459    0.000082800
Si        5.388772354    8.081241105    8.119668171    0.000233455    0.000312239   -0.000140714
Si        4.034782070    1.382003917    1.405941324   -0.000305478    0.000091877    0.000060418
Si        4.062082215    1.418293345    6.705802120    0.000037012    0.000008173   -0.000016533
Si        3.998724358    6.788956371    1.287236574    0.000077539    0.000034233   -0.000246766
Si        4.106246717    6.685574804    6.798572364   -0.000267042    0.000358313    0.000433183
Si        9.437498060    1.347396972    1.380480674   -0.000024766    0.000289909   -0.000201810
Si        9.406327770    1.387805344    6.742074414   -0.000374839   -0.000013019    0.000296001
Si        9.411003486    6.759288049    1.406558090   -0.000437059    0.000028060    0.000096384
Si        9.367653545    6.722344586    6.708176366    0.000117515    0.000231187   -0.000194463
Si        1.381471014    4.034866156    1.405675226    0.000103741   -0.000291754    0.000067307
Si        1.418201091    4.062297302    6.706009641    0.000004904    0.000055112   -0.000027850
Si        1.347352235    9.437744779    1.380791751    0.000274441   -0.000018735   -0.000221988
Si        1.387496355    9.406232679    6.741814662   -0.000023785   -0.000347589    0.000308865
Si        6.788942559    3.998930629    1.287229240    0.000023778    0.000090898   -0.000242657
Si        6.684934074    4.106149973    6.797982407    0.000376989   -0.000242660    0.000460839
Si        6.758721202    9.411059031    1.406307479    0.000041939   -0.000428308    0.000102881
Si        6.722226067    9.367872103    6.708346311    0.000233820    0.000124704   -0.000201119
Si        4.408922798    4.408913430    4.047424902    0.000371241    0.000404364    0.000314319
Si        4.042674266    4.042897569    9.460064497   -0.000077319   -0.000073859   -0.000354043
Si        4.063707326    9.415407107    4.054724653   -0.000083890   -0.000176399   -0.000000987
Si        4.037556932    9.478804852    9.424090805    0.000250239    0.000357858   -0.000009150
Si        9.415225275    4.063852441    4.054632044   -0.000176534   -0.000080873    0.000003208
Si        9.478300525    4.038024725    9.423936900    0.000363594    0.000262200   -0.000004972
Si        9.353907179    9.354175681    4.087198248    0.000405595    0.000410966   -0.000172548
Si        9.435876086    9.436115745    9.419142427   -0.000040577   -0.000037531    0.000045085
Si        1.423348163    1.423636196    4.075637282    0.000218585    0.000220099    0.000285676
Si        1.361360953    1.361410792    9.423887457   -0.000216336   -0.000209740   -0.000018352
Si        1.383627025    6.736024458    4.060159813   -0.000221215   -0.000198653   -0.000151921
Si        1.307853311    6.748698547    9.415503831   -0.000175022   -0.000267684    0.000140104
Si        6.736160377    1.383501467    4.060089046   -0.000204080   -0.000211159   -0.000148638
Si        6.748343851    1.308116542    9.415450700   -0.000265331   -0.000168549    0.000135512
Si        6.369083507    6.369282486    4.044882917    0.000193806    0.000200068    0.000082123
Si        6.753753381    6.753814932    9.463824186   -0.000075078   -0.000076518   -0.000244766
