 CRYSTAL
 PRIMVEC
   10.760997952    0.000000000    0.000000000
    0.000000000   10.760997952    0.000000000
    0.000000000    0.000000000   10.760997952
 PRIMCOORD
          63           1
Si        2.696846700    2.696703993    0.067405485    0.000278944    0.000291233   -0.000326016
Si        2.885318845    2.883718338    5.424780070    0.000263075    0.000275163    0.000252131
Si        2.662497319    8.065742108    0.025597913   -0.000059475    0.000239656    0.000280994
Si        2.700657012    8.049871604    5.408891990   -0.000662561    0.000607721   -0.000556812
Si        8.067042498    2.662095013    0.026366534    0.000198300   -0.000008712    0.000254963
Si        8.050769376    2.700168375    5.410200650    0.000536976   -0.000624901   -0.000631731
Si        8.065255947    8.064098685    0.012886944   -0.000182238   -0.000150129   -0.000599534
Si        7.953500833    7.953087523    5.343001231   -0.000026000   -0.000006548    0.000406339
Si        0.013675219    0.013836318   -0.011515109   -0.000023685    0.000005037   -0.000074565
Si        0.040305590    0.039297564    5.346519918   -0.000109825   -0.000047351    0.000135265
Si        0.048379232    5.396237419   -0.010783530   -0.000186457    0.000168935    0.000209706
Si        0.014101420    5.382255513    5.372594619   -0.000057816    0.000057169    0.000009453
Si        5.397604546    0.047577172   -0.011663438    0.000054550   -0.000119680    0.000229907
Si        5.381935910    0.014088806    5.373345363    0.000046886   -0.000042495   -0.000003785
Si        5.393206160    5.393683327   -0.019681600   -0.000010372   -0.000013934    0.000227370
Si        2.728623315    0.033374406    2.725101490    0.000113931    0.000448595   -0.000065629
Si        2.688091133   -0.021521800    8.088630977   -0.000044803   -0.000044561    0.000042430
Si        2.893840089    5.388037910    2.861069123   -0.000301851    0.000145466   -0.000068676
Si        2.700914995    5.354609605    8.064138269   -0.000189065    0.000545078   -0.000010833
Si        8.098177196    0.010304513    2.692286769    0.000198607   -0.000362038   -0.000104738
Si        8.073473622   -0.047428983    8.049020562   -0.000003959    0.000093652    0.000079551
Si        8.103257744    5.387432634    2.667879871   -0.000066774    0.000097895    0.000334625
Si        7.994979379    5.346183288    7.991439100   -0.000187537   -0.000448471   -0.000346507
Si        0.033635964    2.730561449    2.725467668    0.000437813    0.000066766   -0.000084838
Si       -0.021695935    2.688827072    8.087563348   -0.000054148   -0.000021602    0.000052211
Si        0.009210890    8.098982104    2.691097100   -0.000366914    0.000200954   -0.000076340
Si       -0.047701618    8.073805716    8.048046312    0.000072767    0.000012158    0.000093196
Si        5.387546974    2.891694912    2.858059779    0.000161766   -0.000272814   -0.000036360
Si        5.355491168    2.702333454    8.063958860    0.000455451   -0.000204512   -0.000067300
Si        5.387217366    8.105507178    2.666477709    0.000084699   -0.000096823    0.000326527
Si        5.346863033    7.996038880    7.991691468   -0.000501120   -0.000175814   -0.000332797
Si        4.084875401    1.427929620    1.451394596    0.000277110    0.000350627   -0.000086970
Si        4.025088213    1.323199913    6.747863812    0.000178812   -0.000039628    0.000059474
Si        4.056751853    6.724810621    1.352940131   -0.000055490    0.000162660    0.000232174
Si        4.051941288    6.531662098    6.580813222   -0.000877779    0.000857854   -0.000266223
Si        9.463047315    1.352366710    1.374877640    0.000247127   -0.000080348    0.000138671
Si        9.423762143    1.321526965    6.743900837    0.000109090   -0.000152445    0.000040818
Si        9.458082861    6.732099269    1.344497095   -0.000407050    0.000218880   -0.000048123
Si        9.380273033    6.694411043    6.700393255    0.000038369   -0.000086447    0.000205203
Si        1.429795644    4.085869287    1.452415795    0.000335593    0.000250665   -0.000089953
Si        1.323400943    4.025207350    6.746221960   -0.000001473    0.000162161    0.000065587
Si        1.352065229    9.462657256    1.373275348   -0.000083552    0.000251672    0.000181614
Si        1.322600831    9.423548476    6.743508439   -0.000173386    0.000094772    0.000025398
Si        6.724426907    4.057442276    1.352693070    0.000172335   -0.000094671    0.000199098
Si        6.529992544    4.053409686    6.577941518    0.000919900   -0.000944560   -0.000190666
Si        6.733572573    9.458924685    1.343676238    0.000196230   -0.000429864   -0.000056350
Si        6.695242310    9.380813018    6.700210489   -0.000120603    0.000024141    0.000206619
Si        4.737869935    4.739209818    4.706905917   -0.000872617   -0.000860980    0.000075083
Si        4.022777118    4.023122584    9.450520876    0.000247011    0.000237979   -0.000512364
Si        4.039216019    9.404303491    4.058604331   -0.000071333    0.000228537   -0.000162369
Si        4.020819576    9.381004321    9.436648619    0.000144491   -0.000152936    0.000008366
Si        9.402979660    4.039868238    4.059111096    0.000284487   -0.000102423   -0.000176972
Si        9.380229124    4.021708457    9.436449791   -0.000090709    0.000077061    0.000018851
Si        9.378197995    9.379135713    4.074332112   -0.000120705   -0.000157805    0.000240952
Si        9.405846691    9.406226502    9.443893722    0.000032944    0.000011461   -0.000170121
Si        1.458578703    1.459410422    4.072382283    0.000136563    0.000108694    0.000203599
Si        1.361353046    1.362745830    9.433961995    0.000053309    0.000036601   -0.000007822
Si        1.374497476    6.730734472    4.040739035   -0.000380988    0.000139003   -0.000239168
Si        1.350454936    6.750951576    9.382028729   -0.000080679    0.000172007    0.000339746
Si        6.729484740    1.376151631    4.042046481    0.000156161   -0.000449573   -0.000288685
Si        6.750626518    1.352261622    9.382216411    0.000196594   -0.000120978    0.000337893
Si        6.532228099    6.534911411    3.970888640    0.000054653   -0.000020337    0.000619197
Si        6.728448263    6.728699512    9.382476290   -0.000313579   -0.000306872   -0.000450766
