 CRYSTAL
 PRIMVEC
    7.347096364    0.000000000    0.000000000
   -2.449029672    4.241846086    0.000000000
    0.000000000    0.000000000    7.400002805
 PRIMCOORD
          25           1
C         7.308060898   -0.020906668   -0.120691355   -0.000056114    0.000000969    0.000448208
C         7.274307896   -0.004928998    3.777533702    0.000002534    0.000010051   -0.000537091
C         6.085916162    2.101243698   -0.119310925   -0.000050093    0.000000802    0.000450749
C         6.052393548    2.117264432    3.776770380   -0.000001925    0.000021865   -0.000532700
C         2.406285197   -0.022937674   -0.127051795   -0.000081504   -0.000014973    0.000481873
C         2.373000258   -0.006992162    3.783730319   -0.000012187   -0.000001104   -0.000479382
C         1.181370474    2.097570427   -0.121532925   -0.000083396   -0.000040736    0.000512391
C         1.147938729    2.113497446    3.778245924   -0.000001290   -0.000015926   -0.000494864
C         4.861363961   -0.022484937   -0.124814540   -0.000056524   -0.000017601    0.000379819
C         4.828112703   -0.006438250    3.784309407    0.000008189    0.000009867   -0.000317616
C         3.634789486    2.103038388   -0.125275807   -0.000053341   -0.000009935    0.000389514
C         3.601436388    2.119128108    3.782474764   -0.000001225    0.000019428   -0.000327636
C        -0.038593201    1.392493036   -0.121265174   -0.000003523    0.000052572    0.000490027
C        -0.072251856    1.408462062    3.778183443   -0.000059749   -0.000067903   -0.000574835
C        -1.265895856    3.511882966   -0.120655565   -0.000005392    0.000053703    0.000480992
C        -1.299412943    3.527959250    3.777184104   -0.000058152   -0.000073281   -0.000567323
C         2.407419755    1.394200483   -0.128358161   -0.000018253    0.000043869    0.000459931
C         2.374438687    1.410066047    3.784483399   -0.000086873   -0.000070511   -0.000407973
C         1.185375904    3.510122475   -0.125963070   -0.000014723    0.000064897    0.000470305
C         1.151992410    3.526245114    3.784350781   -0.000079243   -0.000070811   -0.000400383
C         4.862719645    1.394395050   -0.123351402   -0.000017657    0.000060457    0.000366855
C         4.829209335    1.410581354    3.782096196   -0.000054518   -0.000073202   -0.000341645
C         3.638647655    3.515795435   -0.119104490   -0.000011028    0.000051376    0.000395212
C         3.605334084    3.531752862    3.776762022   -0.000066241   -0.000081798   -0.000397846
Li        3.601296860    0.689869263    1.828315422    0.000862228    0.000147928    0.000053416
