 CRYSTAL
 PRIMVEC
    7.347096364    0.000000000    0.000000000
   -2.449029672    4.241846086    0.000000000
    0.000000000    0.000000000    7.400002805
 PRIMCOORD
          25           1
C         7.389203310   -0.004702360   -0.118122620    0.000009389   -0.000008190    0.000179733
C         7.379019959    0.001336835    3.779335037    0.000022291    0.000009779   -0.000173941
C         6.164192753    2.115686705   -0.113377360    0.000011284   -0.000009525    0.000214790
C         6.154088674    2.121658848    3.774132882    0.000028490    0.000007456   -0.000223916
C         2.497814132   -0.004126803   -0.121774447    0.000052789    0.000001696    0.000352493
C         2.487678428    0.001817966    3.785341411    0.000065031    0.000029156   -0.000282167
C         1.270877711    2.121701772   -0.120595268    0.000053773   -0.000002757    0.000310739
C         1.260746731    2.127671377    3.783277129    0.000065677    0.000030778   -0.000261741
C         4.943924430   -0.002566850   -0.115046177    0.000020099   -0.000008276    0.000313822
C         4.933823426    0.003502106    3.775829548    0.000047098   -0.000018647   -0.000391245
C         3.722038022    2.119677864   -0.114363029    0.000021000    0.000001098    0.000337882
C         3.711906509    2.125883094    3.775441671    0.000054845   -0.000006249   -0.000394044
C         0.043501618    1.412375850   -0.119963849    0.000033836    0.000013630    0.000188499
C         0.033313783    1.418359967    3.781599862    0.000058781   -0.000018784   -0.000154681
C        -1.178813784    3.528487766   -0.119297603    0.000034576    0.000013291    0.000238498
C        -1.188985253    3.534452804    3.781650864    0.000063859   -0.000020868   -0.000182624
C         2.499099199    1.412976297   -0.120830899    0.000007632    0.000008012    0.000382203
C         2.489038219    1.419017852    3.783903488    0.000043104   -0.000027584   -0.000348004
C         1.274995713    3.534348071   -0.115286048    0.000010730    0.000018620    0.000359458
C         1.264881746    3.540384679    3.777590040    0.000051356   -0.000014148   -0.000350748
C         4.944027455    1.410685549   -0.114485999    0.000052421    0.000021810    0.000270054
C         4.933939190    1.416733947    3.774882820    0.000065574    0.000020073   -0.000349829
C         3.717200650    3.530201521   -0.113421415    0.000046209    0.000016490    0.000267579
C         3.707044003    3.536398939    3.773742150    0.000066533    0.000006785   -0.000340477
Li        1.284874648    0.710034839    1.830839446   -0.000986378   -0.000063645    0.000037665
