 CRYSTAL
 PRIMVEC
    7.347096364    0.000000000    0.000000000
   -2.449029672    4.241846086    0.000000000
    0.000000000    0.000000000    7.400002805
 PRIMCOORD
          25           1
C         7.349533525   -0.014112657   -0.125144646   -0.000050587   -0.000003702   -0.000427321
C         7.328553752   -0.001343277    3.789988636   -0.000073938   -0.000087996    0.000604096
C         6.126096923    2.105105839   -0.120911783   -0.000162900    0.000039832   -0.000444975
C         6.104917646    2.118008647    3.786088065   -0.000125518   -0.000052279    0.000645988
C         2.452720282   -0.019029194   -0.211868858    0.000121455    0.000057301   -0.000495787
C         2.431385992   -0.006111038    3.864329775    0.000101474   -0.000023445    0.000323743
C         1.225820567    2.106364925   -0.165035400    0.000123735    0.000038140   -0.000582363
C         1.204619669    2.119213281    3.820546960    0.000107284   -0.000021866    0.000380290
C         4.904947832   -0.015049536   -0.136260346    0.000088118    0.000172513   -0.000494438
C         4.883741771   -0.002327556    3.798361281   -0.000046187   -0.000056791    0.000573535
C         3.681352241    2.108068807   -0.149297721    0.000140099    0.000120915   -0.000534793
C         3.660143313    2.120863409    3.808978046    0.000008009   -0.000087343    0.000546482
C         0.000689077    1.404039565   -0.135946712    0.000210672   -0.000031944   -0.000477167
C        -0.020220214    1.416698655    3.798989512    0.000080055    0.000002074    0.000546998
C        -1.224446579    3.522640393   -0.148940153    0.000118087    0.000004971   -0.000542880
C        -1.245716600    3.535486264    3.810131123    0.000034568    0.000020308    0.000525414
C         2.453279902    1.407823339   -0.211436032   -0.000141428   -0.000098151   -0.000487858
C         2.431717651    1.420452360    3.862238367   -0.000079777    0.000034383    0.000320083
C         1.230880648    3.524095103   -0.165270132   -0.000058210   -0.000122475   -0.000612455
C         1.209595526    3.536686079    3.820883145   -0.000017001    0.000016068    0.000384421
C         4.903465874    1.403223790   -0.125402637    0.000093458   -0.000065151   -0.000470109
C         4.882319364    1.415857959    3.789822985    0.000106284    0.000091865    0.000645846
C         3.677905731    3.525605111   -0.121074079    0.000040138   -0.000060866   -0.000429530
C         3.656813365    3.538393115    3.785313775    0.000097741    0.000088016    0.000649981
Li        2.427226467    0.690785537    1.824949974   -0.000715631    0.000025623   -0.000147202
