 CRYSTAL
 PRIMVEC
    6.350126531    0.000000000    0.000000000
    0.000000000    6.350126531    0.000000000
    0.000000000    0.000000000    6.350126531
 PRIMCOORD
           4           1
N        -0.004765880   -0.003833508    2.341451358    0.000054111   -0.000039199   -0.000835466
H         0.817465406    0.466845967    2.726925961   -0.000894637   -0.000375721    0.000254205
H        -0.820294235    0.469900049    2.737360386    0.000933035   -0.000510232    0.000291839
H        -0.003578556   -0.949179984    2.731835706   -0.000092509    0.000925152    0.000289422
