 CRYSTAL
 PRIMVEC
    6.350126531    0.000000000    0.000000000
    0.000000000    6.350126531    0.000000000
    0.000000000    0.000000000    6.350126531
 PRIMCOORD
           4           1
N        -0.001493253   -0.005087150    2.928369631   -0.000112586   -0.000032099    0.000458438
H         0.816006235    0.467221013    2.534892191   -0.000403994   -0.000309168   -0.000174694
H        -0.820553630    0.469850304    2.541391389    0.000380839   -0.000145960   -0.000115884
H        -0.005227437   -0.948401967    2.533053331    0.000135741    0.000487227   -0.000167860
