 CRYSTAL
 PRIMVEC
    6.350126531    0.000000000    0.000000000
    0.000000000    6.350126531    0.000000000
    0.000000000    0.000000000    6.350126531
 PRIMCOORD
           4           1
N        -0.002733181   -0.004162164    2.636089261   -0.000344460   -0.000061487    0.000366589
H         0.867875537    0.496792047    2.630390795    0.000038078   -0.000156519   -0.000128564
H        -0.871788423    0.499936996    2.639175026    0.000301719   -0.000350576   -0.000111604
H        -0.004574609   -1.008909517    2.631984895    0.000004663    0.000568582   -0.000126421
