 CRYSTAL
 PRIMVEC
    7.744104763    0.000000000    0.000000000
    0.000000000    7.744104763    0.000000000
    0.000000000    0.000000000    7.744104763
 PRIMCOORD
          31           1
Al        1.908902017    0.000228610    1.909259972    0.000995352   -0.000000441    0.000994709
Al        1.915816856    1.953654521   -0.037948485   -0.000091636    0.000158437    0.000015886
Al       -0.038310486    1.953654592    1.916172149    0.000016917    0.000158565   -0.000091287
Al        3.833428199    0.000224437   -0.036904967    0.000124537    0.000000873   -0.000165082
Al       -1.991422711    0.000225665    1.916217105   -0.000092461    0.000000376   -0.000123180
Al       -1.991841242    1.954255311   -0.038791145   -0.000042849    0.000063218    0.000040666
Al        3.835808429    1.947633425    1.908526757   -0.000485152   -0.000243444   -0.000029550
Al       -0.037517489    3.872284030   -0.037154508   -0.000189600   -0.000000711   -0.000191360
Al        1.907479620    3.872281629    1.907831532    0.000077561   -0.000000371    0.000078393
Al        1.915816591   -1.953197234   -0.037956071   -0.000091466   -0.000159136    0.000017188
Al       -0.038309217   -1.953200134    1.916171004    0.000016761   -0.000158495   -0.000091295
Al        3.832094735    3.872276486   -0.039168000    0.000394386    0.000000534    0.000313734
Al       -1.982958317    3.872280410    1.909042105   -0.000272989   -0.000000317   -0.000270420
Al       -1.991846629   -1.953799222   -0.038798104   -0.000041816   -0.000063428    0.000042247
Al        3.835811117   -1.947184336    1.908525836   -0.000486039    0.000244423   -0.000029954
Al       -0.037264680    0.000225502    3.833783363   -0.000164379    0.000000452    0.000125180
Al        1.915874545    0.000224982   -1.991055986   -0.000125453    0.000000450   -0.000094401
Al        1.908165500    1.947628973    3.836162753   -0.000029194   -0.000242658   -0.000484404
Al       -0.039154107    1.954256864   -1.991486258    0.000042215    0.000063378   -0.000042493
Al        3.832836673    0.000224138    3.833195270   -0.000139503    0.000000483   -0.000139760
Al       -1.992074906    0.000228532   -1.991719564   -0.000097536    0.000000256   -0.000097368
Al       -1.984732879    1.946966249    3.833668156   -0.000066743   -0.000118555    0.000192971
Al        3.833313744    1.946971980   -1.984377847    0.000192695   -0.000119752   -0.000066363
Al       -0.039529079    3.872278103    3.832453013    0.000314480    0.000000225    0.000394450
Al        1.908695111    3.872276836   -1.982598416   -0.000272355    0.000000573   -0.000273576
Al        1.908164028   -1.947180554    3.836159893   -0.000028893    0.000243599   -0.000483803
Al       -0.039155863   -1.953798374   -1.991490008    0.000042661   -0.000063864   -0.000042248
Al        3.832705100    3.872281892    3.833056158    0.000135589   -0.000000422    0.000136686
Al       -1.986105357    3.872287086   -1.985740125    0.000239672   -0.000001582    0.000237923
Al       -1.984735045   -1.946511881    3.833660052   -0.000066280    0.000118596    0.000194215
Al        3.833317468   -1.946513526   -1.984373278    0.000191520    0.000118737   -0.000067705
