 CRYSTAL
 PRIMVEC
    7.744104763    0.000000000    0.000000000
    0.000000000    7.744104763    0.000000000
    0.000000000    0.000000000    7.744104763
 PRIMCOORD
          31           1
Al        0.012542335    0.000052445    0.012633701   -0.000939108    0.000000680   -0.000939752
Al        1.959992140    1.954822909    0.005582543   -0.000043813    0.000018268    0.000096378
Al        0.005500224    1.954826420    1.960075588    0.000095669    0.000017423   -0.000043235
Al        3.912710062    0.000055931    0.006190314    0.000097464   -0.000000227    0.000066912
Al       -1.911709684    0.000052211    1.959192020   -0.000089189    0.000000340    0.000121760
Al       -1.913806076    1.947046859    0.013283958    0.000432754   -0.000207922    0.000045049
Al        3.913742495    1.954131092    1.960599862   -0.000003094    0.000044628   -0.000016952
Al        0.013380021    3.872104762    0.013463923    0.000023382    0.000000559    0.000023596
Al        1.959397255    3.872109154    1.959485139    0.000132716   -0.000000272    0.000132223
Al        1.959992425   -1.954709663    0.005583235   -0.000043887   -0.000018773    0.000096283
Al        0.005500523   -1.954713209    1.960078709    0.000095668   -0.000017926   -0.000043509
Al        3.905525269    3.872111047    0.013306442    0.000159447   -0.000000647    0.000189410
Al       -1.911070768    3.872109426    1.961013363   -0.000270682   -0.000000040   -0.000266267
Al       -1.913801602   -1.946936728    0.013286386    0.000431884    0.000207875    0.000044731
Al        3.913735911   -1.954021374    1.960596501   -0.000001952   -0.000044435   -0.000016200
Al        0.006107187    0.000058149    3.912797637    0.000066215   -0.000000531    0.000096948
Al        1.959095138    0.000053426   -1.911623615    0.000123145    0.000000278   -0.000089273
Al        1.960516874    1.954135198    3.913829973   -0.000017392    0.000044150   -0.000002978
Al        0.013197089    1.947046459   -1.913722973    0.000045106   -0.000207751    0.000433347
Al        3.913541494    0.000052208    3.913627851    0.000095486    0.000000292    0.000095531
Al       -1.911730508    0.000052654   -1.911642738    0.000224793    0.000000451    0.000224321
Al       -1.911604372    1.946949171    3.906481451   -0.000184758   -0.000117683    0.000069838
Al        3.906393371    1.946942513   -1.911518476    0.000070166   -0.000116498   -0.000184728
Al        0.013221213    3.872109980    3.905607641    0.000189309   -0.000000448    0.000160426
Al        1.960923541    3.872109492   -1.910980373   -0.000265692   -0.000000200   -0.000271329
Al        1.960513355   -1.954024897    3.913828372   -0.000016774   -0.000044136   -0.000002662
Al        0.013199392   -1.946935214   -1.913720115    0.000044859    0.000207507    0.000432798
Al        3.907464125    3.872105181    3.907551212   -0.000183715    0.000000449   -0.000183742
Al       -1.911028684    3.872110649   -1.910943074   -0.000153296   -0.000000604   -0.000153218
Al       -1.911605976   -1.946840906    3.906486697   -0.000184502    0.000118108    0.000068525
Al        3.906393764   -1.946835581   -1.911520618    0.000069789    0.000117085   -0.000184233
