 CRYSTAL
 PRIMVEC
    7.744104763    0.000000000    0.000000000
    0.000000000    7.744104763    0.000000000
    0.000000000    0.000000000    7.744104763
 PRIMCOORD
          31           1
Al        0.959990506    0.000134115    0.960313564   -0.000059476   -0.000004996   -0.000067756
Al        1.988906736    2.092428468   -0.068280905    0.000153914    0.000218479    0.000079956
Al       -0.068527981    2.092460655    1.989129222    0.000083344    0.000219745    0.000156842
Al        3.824822822    0.000142296    0.000000523   -0.000597802   -0.000001572    0.000469299
Al       -1.898210956    0.000084301    1.919111962    0.000199282    0.000009567   -0.000156671
Al       -1.945921795    1.945092747   -0.015949947   -0.000140100   -0.000184763    0.000063642
Al        3.868548186    1.944697205    1.937116885   -0.000003051   -0.000190355   -0.000030555
Al       -0.014933987    3.872237836   -0.014742413   -0.000260662   -0.000008567   -0.000258417
Al        1.936749131    3.872200668    1.936939705    0.000193727    0.000000054    0.000200224
Al        1.988922864   -2.092166805   -0.068323617    0.000153479   -0.000213666    0.000089249
Al       -0.068561586   -2.092186797    1.989143787    0.000094094   -0.000218912    0.000156996
Al        3.888011789    3.872169416   -0.016666777   -0.000017749    0.000005048   -0.000202287
Al       -1.965846241    3.872189510    1.937813502   -0.000171082   -0.000001865    0.000357125
Al       -1.945912478   -1.944804225   -0.015919584   -0.000145089    0.000182567    0.000053566
Al        3.868509319   -1.944454121    1.937065248   -0.000001917    0.000191029   -0.000026728
Al       -0.000318089    0.000144386    3.825027626    0.000484303   -0.000001293   -0.000598263
Al        1.918870486    0.000100620   -1.897952737   -0.000155790    0.000006035    0.000196259
Al        1.936930501    1.944639288    3.868688758   -0.000035672   -0.000186952   -0.000001256
Al       -0.016169083    1.945154215   -1.945748550    0.000065922   -0.000190129   -0.000137295
Al        3.866294852    0.000075103    3.866480885   -0.000025735    0.000009539   -0.000025403
Al       -1.944061501    0.000152114   -1.943865419   -0.000001067   -0.000005833    0.000004049
Al       -1.950234139    1.969494391    3.871829606    0.000238613    0.000269170   -0.000191619
Al        3.871622279    1.969457197   -1.950006615   -0.000190230    0.000271670    0.000237343
Al       -0.016867876    3.872173916    3.888248794   -0.000201294    0.000003902   -0.000026298
Al        1.937653999    3.872186165   -1.965645620    0.000351285   -0.000001663   -0.000165580
Al        1.936918532   -1.944409220    3.868668943   -0.000037902    0.000190176   -0.000001900
Al       -0.016151897   -1.944864621   -1.945767476    0.000059458    0.000188501   -0.000138463
Al        3.881724448    3.872212338    3.881952983   -0.000062733   -0.000004612   -0.000067510
Al       -1.959265956    3.872241045   -1.958998740   -0.000027541   -0.000003190   -0.000033330
Al       -1.950219044   -1.969202892    3.871772086    0.000236492   -0.000273728   -0.000177570
Al        3.871585229   -1.969179477   -1.950019608   -0.000179022   -0.000273388    0.000242350
